<?xml version="1.0" encoding="UTF-8"?>
<!-- generated on 2020-08-20 15:12:46.133155 by get_taz.py v1_6_0+1293-6f542e5c3a
  options: 
-->
<tazs xmlns:xsi="http://www.w3.org/2001/XMLSchema-instance" xsi:noNamespaceSchemaLocation="http://sumo.dlr.de/xsd/taz_file.xsd">
    <taz id="lib" edges="594254221#0 594254221#1 594254222#0 153117748#2 594254223#2 153117656 594254222#1 153117748#1 594254223#0 594254223#1"/>
    <taz id="ftz" edges="139943708#0 -726163742#0 -726163741 151183962#0 726163741 726163743 151184840 721202195#2 721202193#0 151183962#1 726163742#0 -726163743 314294738#15 314294738#14"/>
    <taz id="uea" edges="-650762158#0 649751274#0 649751275#1 793096952 649751275#2 650762158#3 -650762160 -793096952"/>
    <taz id="sdh" edges="314294738#6 152169620 314294738#5 773150881 151184838#3 153121926#4 152169580 -773150881 151184863#0 -153121926#4 680369139#0 680369138"/>
    <taz id="lyn" edges="594254221#0 594254221#1 594254222#0 153117748#2 594254223#2 153117656 594254222#1 153117748#1 594254223#0 594254223#1"/>
    <taz id="rkn" edges="680369127#1 -314294740#2 314294738#0 76158397#17 680369127#0 314294738#1 -76158397#20 17547103#0 680369141#0 314294738#2 -17547103#0 152169644 76158397#20 314294740#2 -76158397#17 680369133#1"/>
    <taz id="cmc" edges="680369133#8 151183970#1 17534053#1 17534053#3 -17534053#3 -17534053#1 152173964 680369133#7 151183970#2 152169638"/>
    <taz id="hhh" edges="680369133#13 151183965 167402604#0 151183962#0 680369133#14 151183962#2 -774942380#1 774942380#1 151183957#0 151183957#1"/>
    <taz id="dbt" edges="418408258#1 722722001 43667477#3 593823824#0 726163743 43667477#2 -593823824#0 722722000 43667477#1 -726163743 43666951 43666975"/>
    <taz id="dnc" edges="153117641#0 722722003 593823824#0 -593823824#1 726163743 43667438#1 153117641#1 593823824#1 -593823824#0 43667438#0 43667438#2 -726163743 43666951 43666975"/>
    <taz id="laf" edges="167402604#3 153121913 152169636 152168342#2 167402604#2 -774535541 -17540347#4 153121916#1 -17540347#3 -774535539#0 153121916#0 17540347#3 17540347#4 17540347#2 -17540347#2"/>
    <taz id="mnb" edges="-483101564#1 -483101564#0 152168348#3 594678475#3 153117741 594678475#2 17534460#0 153117754#1 17534460#1 -17534460#1 594678475#1 483101564#1 483101564#0 594678475#0 152173955#0 -17534460#0"/>
    <taz id="ndh" edges="17558874#6 167402589#1 -773670666#2 17558874#5 153117628#2 773670666#1 167402593#2 773670666#2 -17558874#6 -773670666#1 -17558874#5 151184856#2 151184856#3"/>
    <taz id="jdn" edges="152173974#1 -448538554#1 726181180#3 448538554#1 448536284#1 448536286 -448538554#0 448538554#0 726181176#1 726181174#0 -448536284#1 167402583 -726181174#0 152173974#0"/>
    <taz id="fgr" edges="17534798#2 -101894907#3 -17534798#2 101894907#3 448534568#0 101894906 -101894906 -101894907#4 101894907#4"/>
    <taz id="rhh" edges="153117673 17546824#4 448539376#0 152169642#0 152169619#0 152169546#2 448539379 -448538554#0 448538554#0 448539381#0 -153117673 -448539381#0 152169619#1 152169546#1"/>
    <taz id="str" edges="151184851 137776158#4 418408251#2 137776158#5 152173991 -418408251#2 -418408251#1 -223312092#10 726181124 223312092#10 139943713#2 43667493#9 -774642705#2 418408251#1 726181127 774642705#2"/>
    <taz id="bks" edges="137776158#11 -76235094#2 726181136#0 726181134#1 152169654#3 -773092452#3 773092452#2 -722413518 76235094#2 722413518 -773092452#2 773092452#3 726181135 726181134#0"/>
    <taz id="mdz" edges="726181116 17536421#6 721220795 -17536421#7 137776158#3 152169537#1 137776158#2 -146837459#9 152169537#0 -17536421#6 -721220795 17536421#7 418408259#7 726181126 146837459#9 418408259#6"/>
    <taz id="nwl" edges="152169636 152169542#0 167402604#3 167402604#2 167402604#5 -774942380#1 17558874#13 167402604#1 774942380#1 -17540347#4 -17540347#3 17540347#3 17540347#2 -17540347#2"/>
    <taz id="jyc" edges="726181164#2 720982704#2 723380243#2 723380243#3 726181164#1 -723380244#1 749236486#1 -749249272 723380243#1"/>
    <taz id="irf" edges="-723686078#1 723686079 -723686078#0 -17538300#1 723686078#0 723686078#1 -723686079 17538300#1"/>
</tazs>
