<?xml version="1.0" encoding="UTF-8"?>

<!-- generated on Wed Jul 29 11:02:18 2020 by Eclipse SUMO polyconvert Version UNKNOWN
<configuration xmlns:xsi="http://www.w3.org/2001/XMLSchema-instance" xsi:noNamespaceSchemaLocation="http://sumo.dlr.de/xsd/polyconvertConfiguration.xsd">

    <input>
        <net-file value="data/map/notre_dame.net.xml"/>
        <osm-files value="data/map/notre_dame_bbox.osm.xml"/>
        <osm.keep-full-type value="true"/>
        <type-file value="/usr/share/sumo-dev/data/typemap/osmPolyconvert.typ.xml"/>
    </input>

    <output>
        <output-file value="data/map/notre_dame.poly.xml"/>
    </output>

    <processing>
        <poi-layer-offset value="5"/>
    </processing>

    <report>
        <verbose value="true"/>
    </report>

</configuration>
-->

<additional xmlns:xsi="http://www.w3.org/2001/XMLSchema-instance" xsi:noNamespaceSchemaLocation="http://sumo.dlr.de/xsd/additional_file.xsd">
    <location netOffset="-557043.68,-4613979.76" convBoundary="-16041.50,-862.15,10554.83,9401.04" origBoundary="-86.507039,41.667292,-86.187558,41.760267" projParameter="+proj=utm +zone=16 +ellps=WGS84 +datum=WGS84 +units=m +no_defs"/>

    <poly id="126796510" type="building.stadium" color="255,230,230" fill="1" layer="-1.00" shape="6729.710778,2652.819712 6724.095827,2656.333904 6718.063687,2657.168495 6678.949336,2656.642930 6672.993611,2655.435231 6668.553094,2652.275725 6664.593806,2646.466813 6663.519948,2640.894516 6665.708118,2640.936175 6667.293665,2543.085839 6665.063664,2543.066014 6666.234035,2536.847472 6670.523102,2531.778087 6675.231566,2529.144056 6681.265782,2528.087380 6681.236856,2531.340388 6720.884233,2531.892900 6720.987867,2528.662764 6727.451662,2529.830608 6732.114919,2533.214197 6735.639140,2538.353076 6736.700686,2544.369406 6734.305057,2544.259259 6732.653334,2642.897344 6734.259739,2642.856124 6733.319913,2648.410512 6729.710778,2652.819712"/>
    <poly id="126796511" type="leisure.pitch" color="207,245,201" fill="1" layer="-2.00" shape="6676.742905,2538.861772 6725.532741,2539.739878 6723.541045,2649.478233 6674.751956,2648.600132 6676.742905,2538.861772"/>
    <poly id="126796511#1" type="sport.american_football" color="79,230,125" fill="1" layer="-2.00" shape="6676.742905,2538.861772 6725.532741,2539.739878 6723.541045,2649.478233 6674.751956,2648.600132 6676.742905,2538.861772"/>
    <poly id="130503309" type="natural.water" color="181,209,209" fill="1" layer="-4.00" shape="3730.528054,4089.639740 3747.533637,4082.755697 3756.621302,4076.570605 3766.315121,4069.546825 3775.250649,4060.706792 3775.792191,4058.657292 3774.518096,4056.836647 3770.215303,4056.033993 3761.170575,4057.156359 3742.653934,4059.741700 3731.972078,4061.627436 3721.510353,4067.967451 3716.375435,4075.029960 3716.574466,4081.971168 3719.294552,4085.946992 3730.528054,4089.639740"/>
    <poly id="130503310" type="natural.water" color="181,209,209" fill="1" layer="-4.00" shape="5456.898651,1367.508392 5458.038118,1369.505805 5461.179472,1370.998820 5467.508835,1369.588378 5488.926672,1361.603180 5510.592033,1350.056066 5533.031884,1333.696971 5547.253426,1319.664490 5556.101503,1306.229103 5565.299796,1288.910653 5571.647311,1273.044046 5580.996615,1247.021996 5585.081237,1228.193277 5590.719632,1205.858409 5598.670078,1178.014334 5600.228577,1170.155756 5597.841211,1164.283492 5587.865204,1161.986795 5582.126513,1164.357171 5577.588619,1170.279972 5573.829505,1179.473928 5564.481662,1201.509937 5550.558940,1218.465146 5540.953599,1233.781479 5535.178873,1245.056372 5523.383057,1271.046024 5508.672225,1292.502347 5485.133665,1326.039744 5470.864915,1346.456294 5461.080118,1358.529021 5457.525730,1363.361249 5456.768692,1365.231096 5456.898651,1367.508392"/>
    <poly id="131547604" type="building.yes" color="255,230,230" fill="1" layer="-1.00" shape="5397.209816,578.670325 5397.344413,566.080446 5413.940541,566.258285 5413.805915,578.848163 5397.209816,578.670325"/>
    <poly id="131547621" type="building.yes" color="255,230,230" fill="1" layer="-1.00" shape="5373.611797,577.720970 5380.045604,577.776973 5380.104075,571.060035 5383.591484,571.090394 5383.685140,560.332190 5373.763903,560.245828 5373.611797,577.720970"/>
    <poly id="131547623" type="building.yes" color="255,230,230" fill="1" layer="-1.00" shape="5382.150859,527.175728 5401.659273,520.794680 5411.390525,550.347369 5392.115907,556.652702 5389.391037,548.390390 5384.232222,550.077579 5381.118265,540.612736 5386.043359,539.001232 5382.150859,527.175728"/>
    <poly id="136379674" type="amenity.hospital" color="237,199,199" fill="1" layer="-1.00" shape="5457.586282,1085.270218 5314.449067,1082.747012 5312.300264,1247.511315 5245.356406,1245.807961 5245.422349,1226.722088 5199.239818,1225.532671 5200.782027,1154.307775 5200.642728,1153.096314 5199.122247,1150.873573 5198.636102,1149.348211 5199.146427,1117.408669 5076.095084,1115.686389 5069.402259,1110.998362 5074.866945,887.571261 5205.999336,887.942383 5208.881508,814.819403 5271.295640,816.227595 5273.769578,746.098958 5291.569585,745.620791 5297.913020,753.181714 5311.880156,769.436137 5320.854881,788.356353 5327.709897,810.777864 5330.246327,831.129926 5325.362412,896.929550 5461.802234,895.719345 5457.586282,1085.270218"/>
    <poly id="136379690" type="amenity.parking" color="184,184,179" fill="1" layer="-1.00" shape="5380.719879,920.061857 5378.876525,996.036283 5347.212981,995.272147 5346.848365,1010.391567 5370.140308,1010.960689 5368.413038,1082.217265 5402.647488,1083.048306 5452.135284,1084.234515 5456.476420,905.132870 5407.336944,903.949689 5406.924697,920.700866 5380.719879,920.061857"/>
    <poly id="136381432" type="landuse.recreation_ground" color="194,194,130" fill="1" layer="-3.00" shape="7144.214737,2793.501954 7250.588681,2795.954516 7252.292936,2722.865581 7145.918006,2720.401903 7144.214737,2793.501954"/>
    <poly id="136381433" type="leisure.pitch" color="207,245,201" fill="1" layer="-2.00" shape="7159.892236,2439.591165 7146.460719,2378.302741 7148.766734,2335.464639 7151.498981,2328.660579 7156.168507,2323.905778 7163.224455,2321.226470 7205.474052,2322.193568 7266.615063,2336.976370 7271.069226,2387.758460 7270.300318,2397.400335 7267.572023,2406.536083 7261.806104,2416.621666 7253.803979,2425.521344 7238.425178,2438.540810 7230.076625,2442.463124 7223.503928,2444.158503 7212.841214,2444.451510 7159.892236,2439.591165"/>
    <poly id="136381433#1" type="sport.baseball" color="79,230,125" fill="1" layer="-2.00" shape="7159.892236,2439.591165 7146.460719,2378.302741 7148.766734,2335.464639 7151.498981,2328.660579 7156.168507,2323.905778 7163.224455,2321.226470 7205.474052,2322.193568 7266.615063,2336.976370 7271.069226,2387.758460 7270.300318,2397.400335 7267.572023,2406.536083 7261.806104,2416.621666 7253.803979,2425.521344 7238.425178,2438.540810 7230.076625,2442.463124 7223.503928,2444.158503 7212.841214,2444.451510 7159.892236,2439.591165"/>
    <poly id="136381434" type="leisure.pitch" color="207,245,201" fill="1" layer="-2.00" shape="7235.706151,2788.059786 7247.054983,2788.217111 7247.385029,2764.414564 7236.036160,2764.257239 7235.706151,2788.059786"/>
    <poly id="136381434#1" type="sport.tennis" color="79,230,125" fill="1" layer="-2.00" shape="7235.706151,2788.059786 7247.054983,2788.217111 7247.385029,2764.414564 7236.036160,2764.257239 7235.706151,2788.059786"/>
    <poly id="136381435" type="leisure.pitch" color="207,245,201" fill="1" layer="-2.00" shape="7148.198602,2750.068173 7159.547493,2750.225359 7159.877346,2726.411710 7148.528417,2726.254524 7148.198602,2750.068173"/>
    <poly id="136381435#1" type="sport.tennis" color="79,230,125" fill="1" layer="-2.00" shape="7148.198602,2750.068173 7159.547493,2750.225359 7159.877346,2726.411710 7148.528417,2726.254524 7148.198602,2750.068173"/>
    <poly id="136381436" type="leisure.pitch" color="207,245,201" fill="1" layer="-2.00" shape="7162.539467,2786.859787 7173.879979,2787.016922 7174.209783,2763.214374 7162.869233,2763.057239 7162.539467,2786.859787"/>
    <poly id="136381436#1" type="sport.tennis" color="79,230,125" fill="1" layer="-2.00" shape="7162.539467,2786.859787 7173.879979,2787.016922 7174.209783,2763.214374 7162.869233,2763.057239 7162.539467,2786.859787"/>
    <poly id="136381437" type="leisure.pitch" color="207,245,201" fill="1" layer="-2.00" shape="7147.530355,2786.580980 7158.870868,2786.738091 7159.200621,2762.935544 7147.860071,2762.778432 7147.530355,2786.580980"/>
    <poly id="136381437#1" type="sport.tennis" color="79,230,125" fill="1" layer="-2.00" shape="7147.530355,2786.580980 7158.870868,2786.738091 7159.200621,2762.935544 7147.860071,2762.778432 7147.530355,2786.580980"/>
    <poly id="136381438" type="leisure.pitch" color="207,245,201" fill="1" layer="-2.00" shape="7163.557358,2750.339009 7174.897928,2750.496145 7175.227732,2726.693599 7163.887125,2726.536463 7163.557358,2750.339009"/>
    <poly id="136381438#1" type="sport.tennis" color="79,230,125" fill="1" layer="-2.00" shape="7163.557358,2750.339009 7174.897928,2750.496145 7175.227732,2726.693599 7163.887125,2726.536463 7163.557358,2750.339009"/>
    <poly id="136381439" type="leisure.pitch" color="207,245,201" fill="1" layer="-2.00" shape="7178.492356,2750.539460 7189.832926,2750.696620 7190.171101,2726.894149 7178.822172,2726.736914 7178.492356,2750.539460"/>
    <poly id="136381439#1" type="sport.tennis" color="79,230,125" fill="1" layer="-2.00" shape="7178.492356,2750.539460 7189.832926,2750.696620 7190.171101,2726.894149 7178.822172,2726.736914 7178.492356,2750.539460"/>
    <poly id="136381440" type="leisure.pitch" color="207,245,201" fill="1" layer="-2.00" shape="7192.483600,2787.328004 7203.824112,2787.485186 7204.154014,2763.682639 7192.813465,2763.525457 7192.483600,2787.328004"/>
    <poly id="136381440#1" type="sport.tennis" color="79,230,125" fill="1" layer="-2.00" shape="7192.483600,2787.328004 7203.824112,2787.485186 7204.154014,2763.682639 7192.813465,2763.525457 7192.483600,2787.328004"/>
    <poly id="136381441" type="leisure.pitch" color="207,245,201" fill="1" layer="-2.00" shape="7177.407824,2787.059640 7188.748337,2787.216799 7189.078289,2763.403149 7177.737739,2763.245991 7177.407824,2787.059640"/>
    <poly id="136381441#1" type="sport.tennis" color="79,230,125" fill="1" layer="-2.00" shape="7177.407824,2787.059640 7188.748337,2787.216799 7189.078289,2763.403149 7177.737739,2763.245991 7177.407824,2787.059640"/>
    <poly id="136381442" type="leisure.pitch" color="207,245,201" fill="1" layer="-2.00" shape="7221.669857,2787.867273 7233.010369,2788.024501 7233.340368,2764.221955 7221.999819,2764.064726 7221.669857,2787.867273"/>
    <poly id="136381442#1" type="sport.tennis" color="79,230,125" fill="1" layer="-2.00" shape="7221.669857,2787.867273 7233.010369,2788.024501 7233.340368,2764.221955 7221.999819,2764.064726 7221.669857,2787.867273"/>
    <poly id="136381443" type="leisure.pitch" color="207,245,201" fill="1" layer="-2.00" shape="7206.802795,2787.522996 7218.143307,2787.680201 7218.473257,2763.877654 7207.132708,2763.720449 7206.802795,2787.522996"/>
    <poly id="136381443#1" type="sport.tennis" color="79,230,125" fill="1" layer="-2.00" shape="7206.802795,2787.522996 7218.143307,2787.680201 7218.473257,2763.877654 7207.132708,2763.720449 7206.802795,2787.522996"/>
    <poly id="136381444" type="leisure.pitch" color="207,245,201" fill="1" layer="-2.00" shape="7207.469453,2751.221137 7218.810022,2751.378342 7219.148393,2727.564769 7207.799465,2727.407489 7207.469453,2751.221137"/>
    <poly id="136381444#1" type="sport.tennis" color="79,230,125" fill="1" layer="-2.00" shape="7207.469453,2751.221137 7218.810022,2751.378342 7219.148393,2727.564769 7207.799465,2727.407489 7207.469453,2751.221137"/>
    <poly id="136381445" type="leisure.pitch" color="207,245,201" fill="1" layer="-2.00" shape="7192.877494,2750.812737 7204.226384,2750.969994 7204.556385,2727.156346 7193.207457,2726.999089 7192.877494,2750.812737"/>
    <poly id="136381445#1" type="sport.tennis" color="79,230,125" fill="1" layer="-2.00" shape="7192.877494,2750.812737 7204.226384,2750.969994 7204.556385,2727.156346 7193.207457,2726.999089 7192.877494,2750.812737"/>
    <poly id="136381446" type="leisure.pitch" color="207,245,201" fill="1" layer="-2.00" shape="7236.517593,2751.403919 7247.866483,2751.561245 7248.196530,2727.758700 7236.855923,2727.601448 7236.517593,2751.403919"/>
    <poly id="136381446#1" type="sport.tennis" color="79,230,125" fill="1" layer="-2.00" shape="7236.517593,2751.403919 7247.866483,2751.561245 7248.196530,2727.758700 7236.855923,2727.601448 7236.517593,2751.403919"/>
    <poly id="136381447" type="leisure.pitch" color="207,245,201" fill="1" layer="-2.00" shape="7222.130465,2751.352603 7233.479355,2751.509906 7233.809454,2727.696258 7222.468847,2727.539030 7222.130465,2751.352603"/>
    <poly id="136381447#1" type="sport.tennis" color="79,230,125" fill="1" layer="-2.00" shape="7222.130465,2751.352603 7233.479355,2751.509906 7233.809454,2727.696258 7222.468847,2727.539030 7222.130465,2751.352603"/>
    <poly id="136691542" type="building.yes" color="255,230,230" fill="1" layer="-1.00" shape="4624.642279,1456.854662 4634.734640,1457.219065 4635.010417,1449.349261 4624.926367,1448.984929 4624.642279,1456.854662"/>
    <poly id="136691543" type="building.yes" color="255,230,230" fill="1" layer="-1.00" shape="4558.295924,1460.425748 4567.304657,1455.173624 4562.760311,1447.440047 4553.751572,1452.692177 4558.295924,1460.425748"/>
    <poly id="136691544" type="building.yes" color="255,230,230" fill="1" layer="-1.00" shape="4620.606387,1474.196472 4635.557693,1474.735912 4635.941528,1463.980202 4620.990104,1463.451864 4620.606387,1474.196472"/>
    <poly id="136691545" type="building.yes" color="255,230,230" fill="1" layer="-1.00" shape="4546.399903,1469.472582 4555.308274,1464.275097 4550.189766,1455.559512 4541.281389,1460.757003 4546.399903,1469.472582"/>
    <poly id="136691546" type="building.yes" color="255,230,230" fill="1" layer="-1.00" shape="4531.918356,1476.254378 4539.906602,1471.593028 4535.583692,1464.238880 4527.595442,1468.900234 4531.918356,1476.254378"/>
    <poly id="136691547" type="building.yes" color="255,230,230" fill="1" layer="-1.00" shape="4523.075367,1485.471815 4531.757860,1480.405600 4524.441046,1467.940474 4515.750222,1473.006626 4523.075367,1485.471815"/>
    <poly id="136691548" type="building.yes" color="255,230,230" fill="1" layer="-1.00" shape="4371.414748,1470.414086 4381.258733,1459.939277 4375.280881,1454.358665 4365.436897,1464.833482 4371.414748,1470.414086"/>
    <poly id="136691549" type="building.yes" color="255,230,230" fill="1" layer="-1.00" shape="4616.418000,1488.949924 4624.322590,1484.343464 4619.212406,1475.639003 4611.307811,1480.245468 4616.418000,1488.949924"/>
    <poly id="136691550" type="building.yes" color="255,230,230" fill="1" layer="-1.00" shape="4303.517112,1468.566976 4311.836632,1476.721305 4317.453157,1471.040124 4309.133637,1462.885788 4303.517112,1468.566976"/>
    <poly id="136691551" type="building.yes" color="255,230,230" fill="1" layer="-1.00" shape="4378.208629,1477.889232 4388.052520,1467.425534 4382.074679,1461.844916 4372.230790,1472.308622 4378.208629,1477.889232"/>
    <poly id="136691552" type="building.yes" color="255,230,230" fill="1" layer="-1.00" shape="4606.800995,1494.285582 4614.371065,1489.864989 4609.908868,1482.265325 4602.338888,1486.674820 4606.800995,1494.285582"/>
    <poly id="136691553" type="building.yes" color="255,230,230" fill="1" layer="-1.00" shape="4387.868578,1485.977413 4396.427391,1476.879513 4390.350461,1471.209212 4381.791649,1480.307120 4387.868578,1485.977413"/>
    <poly id="136691554" type="building.yes" color="255,230,230" fill="1" layer="-1.00" shape="4598.249978,1498.575613 4605.627580,1494.275491 4601.665673,1487.535082 4594.288067,1491.835208 4598.249978,1498.575613"/>
    <poly id="136691555" type="building.yes" color="255,230,230" fill="1" layer="-1.00" shape="4294.482340,1477.860770 4302.202421,1485.066187 4308.568911,1478.303303 4300.848828,1471.097879 4294.482340,1477.860770"/>
    <poly id="136691556" type="building.yes" color="255,230,230" fill="1" layer="-1.00" shape="4505.659989,1491.784340 4514.275503,1486.761942 4509.263530,1478.236055 4500.648010,1483.258460 4505.659989,1491.784340"/>
    <poly id="136691557" type="building.yes" color="255,230,230" fill="1" layer="-1.00" shape="4405.329016,1484.106272 4399.243872,1478.424790 4390.449850,1487.776046 4396.534993,1493.457520 4405.329016,1484.106272"/>
    <poly id="136691558" type="building.yes" color="255,230,230" fill="1" layer="-1.00" shape="4463.279419,1473.511130 4470.702003,1468.811541 4465.955164,1461.387179 4458.532576,1466.086773 4463.279419,1473.511130"/>
    <poly id="136691559" type="building.yes" color="255,230,230" fill="1" layer="-1.00" shape="4406.805360,1455.572587 4414.071267,1460.409250 4418.935767,1453.145045 4411.678178,1448.308448 4406.805360,1455.572587"/>
    <poly id="136691560" type="building.yes" color="255,230,230" fill="1" layer="-1.00" shape="4402.102340,1501.288583 4412.332573,1490.417412 4406.618984,1485.083308 4396.388657,1495.965590 4402.102340,1501.288583"/>
    <poly id="136691561" type="building.yes" color="255,230,230" fill="1" layer="-1.00" shape="4589.583817,1503.675198 4597.605454,1499.003096 4592.339326,1490.041939 4584.317682,1494.714047 4589.583817,1503.675198"/>
    <poly id="136691562" type="building.yes" color="255,230,230" fill="1" layer="-1.00" shape="4489.615622,1508.057149 4500.464443,1501.732622 4492.466680,1488.118053 4481.617846,1494.442591 4489.615622,1508.057149"/>
    <poly id="136691563" type="building.yes" color="255,230,230" fill="1" layer="-1.00" shape="4412.193521,1506.638003 4420.433246,1497.870492 4414.348125,1492.188997 4406.108496,1500.945413 4412.193521,1506.638003"/>
    <poly id="136691564" type="building.yes" color="255,230,230" fill="1" layer="-1.00" shape="4453.163888,1479.730970 4461.072605,1475.601806 4456.118018,1466.199297 4448.217520,1470.339641 4453.163888,1479.730970"/>
    <poly id="136691565" type="building.yes" color="255,230,230" fill="1" layer="-1.00" shape="4580.133198,1509.023424 4588.656725,1504.055840 4583.915758,1495.965254 4575.383808,1500.943875 4580.133198,1509.023424"/>
    <poly id="136691566" type="building.yes" color="255,230,230" fill="1" layer="-1.00" shape="4437.410122,1481.538909 4445.926433,1482.255937 4446.712947,1473.035918 4438.196721,1472.307788 4437.410122,1481.538909"/>
    <poly id="136691567" type="building.yes" color="255,230,230" fill="1" layer="-1.00" shape="4571.061898,1515.751721 4578.916209,1511.178089 4572.911767,1500.967040 4565.065771,1505.540750 4571.061898,1515.751721"/>
    <poly id="136691568" type="building.yes" color="255,230,230" fill="1" layer="-1.00" shape="4463.249259,1517.768255 4476.281154,1510.174451 4470.859051,1500.945570 4457.827146,1508.539384 4463.249259,1517.768255"/>
    <poly id="136691569" type="building.yes" color="255,230,230" fill="1" layer="-1.00" shape="4560.754995,1520.992684 4567.864814,1516.856771 4562.245965,1507.293031 4555.136045,1511.440052 4560.754995,1520.992684"/>
    <poly id="136691570" type="building.yes" color="255,230,230" fill="1" layer="-1.00" shape="4552.089029,1528.013171 4559.399710,1523.745737 4553.583988,1513.847216 4546.273300,1518.114656 4552.089029,1528.013171"/>
    <poly id="136691571" type="building.yes" color="255,230,230" fill="1" layer="-1.00" shape="4450.526869,1526.153065 4458.255688,1521.644845 4452.513772,1511.858074 4444.776625,1516.366229 4450.526869,1526.153065"/>
    <poly id="136691572" type="building.yes" color="255,230,230" fill="1" layer="-1.00" shape="4439.838001,1533.245158 4448.369722,1528.277480 4441.996046,1517.430494 4433.464317,1522.398180 4439.838001,1533.245158"/>
    <poly id="136691573" type="building.yes" color="255,230,230" fill="1" layer="-1.00" shape="4541.960044,1531.923303 4549.337578,1527.623124 4543.685997,1517.992499 4536.300136,1522.292612 4541.960044,1531.923303"/>
    <poly id="136691574" type="building.yes" color="255,230,230" fill="1" layer="-1.00" shape="4532.152630,1538.123474 4539.789470,1533.670067 4534.564334,1524.775924 4526.927489,1529.229336 4532.152630,1538.123474"/>
    <poly id="136691575" type="building.yes" color="255,230,230" fill="1" layer="-1.00" shape="4425.084383,1540.724335 4435.381081,1534.716971 4430.246028,1525.979124 4419.949418,1531.975394 4425.084383,1540.724335"/>
    <poly id="136691576" type="building.yes" color="255,230,230" fill="1" layer="-1.00" shape="4518.211240,1545.986946 4526.441978,1541.183323 4521.725362,1533.159608 4513.494618,1537.963236 4518.211240,1545.986946"/>
    <poly id="136691577" type="building.yes" color="255,230,230" fill="1" layer="-1.00" shape="4411.788621,1549.015471 4420.847351,1543.730285 4414.366985,1532.704758 4405.316568,1537.990023 4411.788621,1549.015471"/>
    <poly id="136691578" type="building.yes" color="255,230,230" fill="1" layer="-1.00" shape="4508.293391,1552.452677 4516.264798,1547.802261 4510.367056,1537.758730 4502.387321,1542.409081 4508.293391,1552.452677"/>
    <poly id="136691579" type="building.yes" color="255,230,230" fill="1" layer="-1.00" shape="4381.459688,1523.906561 4386.541148,1518.509532 4378.086325,1510.620431 4373.013188,1516.017537 4381.459688,1523.906561"/>
    <poly id="136691580" type="building.yes" color="255,230,230" fill="1" layer="-1.00" shape="4400.239059,1552.636044 4408.009618,1548.105922 4402.472757,1538.665149 4394.702193,1543.195277 4400.239059,1552.636044"/>
    <poly id="136691581" type="building.yes" color="255,230,230" fill="1" layer="-1.00" shape="4367.693727,1530.739229 4374.438252,1523.568822 4366.437522,1516.105547 4359.692999,1523.275961 4367.693727,1530.739229"/>
    <poly id="136691582" type="building.yes" color="255,230,230" fill="1" layer="-1.00" shape="4390.709045,1557.561914 4398.513071,1553.009862 4392.935067,1543.513228 4385.131036,1548.065285 4390.709045,1557.561914"/>
    <poly id="136691583" type="building.yes" color="255,230,230" fill="1" layer="-1.00" shape="4487.742882,1564.312136 4500.063727,1557.134195 4493.583589,1546.097492 4481.262732,1553.275444 4487.742882,1564.312136"/>
    <poly id="136691584" type="building.yes" color="255,230,230" fill="1" layer="-1.00" shape="4351.076644,1529.386649 4358.218634,1536.054225 4364.375275,1529.500553 4357.233284,1522.832972 4351.076644,1529.386649"/>
    <poly id="136691585" type="building.yes" color="255,230,230" fill="1" layer="-1.00" shape="4376.473460,1552.188116 4382.396151,1562.253954 4389.288404,1558.238138 4383.365815,1548.161192 4376.473460,1552.188116"/>
    <poly id="136691586" type="building.yes" color="255,230,230" fill="1" layer="-1.00" shape="4476.488708,1571.332704 4486.325314,1565.599044 4480.115788,1555.031011 4470.287495,1560.764751 4476.488708,1571.332704"/>
    <poly id="136691587" type="building.yes" color="255,230,230" fill="1" layer="-1.00" shape="4466.632010,1576.499941 4474.553145,1571.882357 4468.778386,1562.050877 4460.857245,1566.668467 4466.632010,1576.499941"/>
    <poly id="136691588" type="building.yes" color="255,230,230" fill="1" layer="-1.00" shape="4455.542947,1582.711423 4464.752227,1577.338759 4459.477863,1568.355423 4450.268576,1573.728094 4455.542947,1582.711423"/>
    <poly id="136691589" type="building.yes" color="255,230,230" fill="1" layer="-1.00" shape="4444.617580,1589.246320 4453.651225,1583.972064 4448.311133,1574.888244 4439.277577,1580.151404 4444.617580,1589.246320"/>
    <poly id="136691590" type="building.yes" color="255,230,230" fill="1" layer="-1.00" shape="4434.992556,1595.548114 4443.331938,1590.678710 4437.229035,1580.289280 4428.881323,1585.158620 4434.992556,1595.548114"/>
    <poly id="136691591" type="building.yes" color="255,230,230" fill="1" layer="-1.00" shape="4424.143554,1601.917147 4432.942915,1596.785199 4428.234365,1588.783821 4419.435094,1593.904673 4424.143554,1601.917147"/>
    <poly id="136691592" type="building.yes" color="255,230,230" fill="1" layer="-1.00" shape="4595.258460,1457.379185 4603.047023,1457.557187 4603.294600,1447.155608 4612.788927,1447.381598 4612.969794,1439.899590 4595.686970,1439.484494 4595.258460,1457.379185"/>
    <poly id="136691593" type="building.yes" color="255,230,230" fill="1" layer="-1.00" shape="4585.439020,1437.853043 4585.045698,1448.753014 4593.964936,1449.073965 4594.358272,1438.173994 4585.439020,1437.853043"/>
    <poly id="136691594" type="building.yes" color="255,230,230" fill="1" layer="-1.00" shape="4574.728233,1457.147179 4585.761249,1450.713330 4580.372145,1441.529062 4569.339120,1447.962919 4574.728233,1457.147179"/>
    <poly id="136691595" type="building.yes" color="255,230,230" fill="1" layer="-1.00" shape="4504.160436,1446.392654 4516.191780,1446.784640 4516.473814,1438.170973 4504.442552,1437.767884 4504.160436,1446.392654"/>
    <poly id="136691596" type="building.yes" color="255,230,230" fill="1" layer="-1.00" shape="4459.468479,1445.276290 4469.652595,1445.619041 4470.023062,1434.452394 4459.838834,1434.120745 4459.468479,1445.276290"/>
    <poly id="136691597" type="building.yes" color="255,230,230" fill="1" layer="-1.00" shape="4445.417211,1446.532555 4453.987210,1446.817026 4454.357271,1435.694788 4445.787258,1435.410316 4445.417211,1446.532555"/>
    <poly id="136691598" type="building.yes" color="255,230,230" fill="1" layer="-1.00" shape="4437.716427,1445.822523 4438.050737,1435.954640 4428.332457,1435.638135 4428.006578,1445.494987 4437.716427,1445.822523"/>
    <poly id="136691599" type="building.yes" color="255,230,230" fill="1" layer="-1.00" shape="4395.007914,1438.572395 4405.183386,1448.663594 4410.237094,1443.599439 4400.061622,1433.508233 4395.007914,1438.572395"/>
    <poly id="136691600" type="building.yes" color="255,230,230" fill="1" layer="-1.00" shape="4413.398424,1587.435264 4418.192033,1593.283339 4425.458497,1587.361014 4420.673116,1581.524108 4413.398424,1587.435264"/>
    <poly id="136691601" type="building.yes" color="255,230,230" fill="1" layer="-1.00" shape="4406.167902,1579.456694 4410.402850,1586.399192 4417.907170,1581.855696 4413.672227,1574.913194 4406.167902,1579.456694"/>
    <poly id="136691602" type="building.yes" color="255,230,230" fill="1" layer="-1.00" shape="4341.438813,1517.745681 4347.664302,1523.561554 4354.921214,1515.840357 4348.695629,1510.035580 4341.438813,1517.745681"/>
    <poly id="136691603" type="building.yes" color="255,230,230" fill="1" layer="-1.00" shape="4333.139546,1511.123731 4339.695363,1517.242211 4347.766834,1508.673035 4341.211016,1502.554547 4333.139546,1511.123731"/>
    <poly id="136691604" type="building.yes" color="255,230,230" fill="1" layer="-1.00" shape="4325.571181,1504.674595 4331.111380,1509.851705 4339.964122,1500.434262 4334.423826,1495.268248 4325.571181,1504.674595"/>
    <poly id="136691605" type="building.yes" color="255,230,230" fill="1" layer="-1.00" shape="4321.182285,1501.117310 4328.061084,1493.814772 4322.372308,1488.492052 4315.493415,1495.805698 4321.182285,1501.117310"/>
    <poly id="136691608" type="amenity.parking" color="184,184,179" fill="1" layer="-1.00" shape="4321.611938,1450.923409 4344.814756,1473.395084 4368.837075,1448.762963 4352.782485,1433.214205 4348.055181,1438.070234 4340.906946,1431.147245 4321.611938,1450.923409"/>
    <poly id="137776161" type="amenity.bicycle_parking" color="237,199,199" fill="1" layer="-1.00" shape="6242.527930,3250.720877 6252.016229,3251.359856 6251.815811,3254.267148 6242.327613,3253.617067 6242.527930,3250.720877"/>
    <poly id="137776164" type="leisure.pitch" color="207,245,201" fill="1" layer="-2.00" shape="7211.665968,2460.440841 7281.497272,2461.833402 7279.217504,2575.832847 7209.387311,2574.440296 7211.665968,2460.440841"/>
    <poly id="137776167" type="leisure.track" color="207,245,201" fill="1" layer="-2.00" shape="7085.367144,2135.015455 7092.159519,2129.258102 7100.170156,2124.999501 7108.208598,2122.284515 7116.388980,2120.447970 7125.927516,2119.356411 7136.987320,2120.310391 7146.418285,2121.938204 7154.155795,2124.949878 7164.311507,2129.282309 7170.422219,2133.667340 7176.235111,2138.782527 7179.801523,2143.844278 7182.345794,2148.741426 7184.189803,2155.630894 7185.572714,2163.826420 7184.322540,2245.757594 7181.381461,2256.357100 7177.628200,2263.795992 7174.028842,2269.848351 7167.491603,2275.929908 7158.530151,2281.367969 7150.135812,2284.812526 7139.557112,2286.849617 7130.305097,2287.566207 7119.646531,2287.370849 7108.430198,2285.338470 7099.197214,2282.069185 7092.287429,2278.643048 7087.277756,2274.911924 7082.020948,2269.968333 7081.416548,2291.014784 7068.701162,2290.967649 7071.155593,2122.641377 7085.250345,2122.956227 7085.367144,2135.015455"/>
    <poly id="137776167#1" type="sport.running" color="79,230,125" fill="1" layer="-2.00" shape="7085.367144,2135.015455 7092.159519,2129.258102 7100.170156,2124.999501 7108.208598,2122.284515 7116.388980,2120.447970 7125.927516,2119.356411 7136.987320,2120.310391 7146.418285,2121.938204 7154.155795,2124.949878 7164.311507,2129.282309 7170.422219,2133.667340 7176.235111,2138.782527 7179.801523,2143.844278 7182.345794,2148.741426 7184.189803,2155.630894 7185.572714,2163.826420 7184.322540,2245.757594 7181.381461,2256.357100 7177.628200,2263.795992 7174.028842,2269.848351 7167.491603,2275.929908 7158.530151,2281.367969 7150.135812,2284.812526 7139.557112,2286.849617 7130.305097,2287.566207 7119.646531,2287.370849 7108.430198,2285.338470 7099.197214,2282.069185 7092.287429,2278.643048 7087.277756,2274.911924 7082.020948,2269.968333 7081.416548,2291.014784 7068.701162,2290.967649 7071.155593,2122.641377 7085.250345,2122.956227 7085.367144,2135.015455"/>
    <poly id="137776172" type="amenity.parking" color="184,184,179" fill="1" layer="-1.00" shape="7042.490085,2443.281489 7109.793755,2444.449912 7111.549351,2344.080654 7044.236417,2342.912151 7042.490085,2443.281489"/>