<?xml version="1.0" encoding="UTF-8"?>

<!-- generated on Tue Jun 23 12:12:52 2020 by Eclipse SUMO polyconvert Version 1.6.0
<configuration xmlns:xsi="http://www.w3.org/2001/XMLSchema-instance" xsi:noNamespaceSchemaLocation="http://sumo.dlr.de/xsd/polyconvertConfiguration.xsd">

    <input>
        <osm-files value="data/map/notre_dame_bbox.osm.xml"/>
        <osm.keep-full-type value="true"/>
        <type-file value="/usr/share/sumo/data/typemap/osmPolyconvert.typ.xml"/>
    </input>

    <output>
        <output-file value="data/map/notre_dame.poly.xml"/>
    </output>

    <projection>
        <proj.scale value="1"/>
        <proj.utm value="true"/>
    </projection>

    <processing>
        <poi-layer-offset value="5"/>
    </processing>

    <report>
        <verbose value="true"/>
    </report>

</configuration>
-->

<additional xmlns:xsi="http://www.w3.org/2001/XMLSchema-instance" xsi:noNamespaceSchemaLocation="http://sumo.dlr.de/xsd/additional_file.xsd">
    <location netOffset="0.00,0.00" convBoundary="541002.18,4613117.61,567598.51,4623380.80" origBoundary="-86.507039,41.667292,-86.187558,41.760267" projParameter="+proj=utm +zone=16 +ellps=WGS84 +datum=WGS84 +units=m +no_defs"/>

    <poly id="126796510" type="building.stadium" color="255,230,230" fill="1" layer="-1.00" shape="563773.390778,4616632.579712 563767.775827,4616636.093904 563761.743687,4616636.928495 563722.629336,4616636.402930 563716.673611,4616635.195231 563712.233094,4616632.035725 563708.273806,4616626.226813 563707.199948,4616620.654516 563709.388118,4616620.696175 563710.973665,4616522.845839 563708.743664,4616522.826014 563709.914035,4616516.607472 563714.203102,4616511.538087 563718.911566,4616508.904056 563724.945782,4616507.847380 563724.916856,4616511.100388 563764.564233,4616511.652900 563764.667867,4616508.422764 563771.131662,4616509.590608 563775.794919,4616512.974197 563779.319140,4616518.113076 563780.380686,4616524.129406 563777.985057,4616524.019259 563776.333334,4616622.657344 563777.939739,4616622.616124 563776.999913,4616628.170512 563773.390778,4616632.579712"/>
    <poly id="126796511" type="leisure.pitch" color="207,245,201" fill="1" layer="-2.00" shape="563720.422905,4616518.621772 563769.212741,4616519.499878 563767.221045,4616629.238233 563718.431956,4616628.360132 563720.422905,4616518.621772"/>
    <poly id="126796511#1" type="sport.american_football" color="79,230,125" fill="1" layer="-2.00" shape="563720.422905,4616518.621772 563769.212741,4616519.499878 563767.221045,4616629.238233 563718.431956,4616628.360132 563720.422905,4616518.621772"/>
    <poly id="130503309" type="natural.water" color="181,209,209" fill="1" layer="-4.00" shape="560774.208054,4618069.399740 560791.213637,4618062.515697 560800.301302,4618056.330605 560809.995121,4618049.306825 560818.930649,4618040.466792 560819.472191,4618038.417292 560818.198096,4618036.596647 560813.895303,4618035.793993 560804.850575,4618036.916359 560786.333934,4618039.501700 560775.652078,4618041.387436 560765.190353,4618047.727451 560760.055435,4618054.789960 560760.254466,4618061.731168 560762.974552,4618065.706992 560774.208054,4618069.399740"/>
    <poly id="130503310" type="natural.water" color="181,209,209" fill="1" layer="-4.00" shape="562500.578651,4615347.268392 562501.718118,4615349.265805 562504.859472,4615350.758820 562511.188835,4615349.348378 562532.606672,4615341.363180 562554.272033,4615329.816066 562576.711884,4615313.456971 562590.933426,4615299.424490 562599.781503,4615285.989103 562608.979796,4615268.670653 562615.327311,4615252.804046 562624.676615,4615226.781996 562628.761237,4615207.953277 562634.399632,4615185.618409 562642.350078,4615157.774334 562643.908577,4615149.915756 562641.521211,4615144.043492 562631.545204,4615141.746795 562625.806513,4615144.117171 562621.268619,4615150.039972 562617.509505,4615159.233928 562608.161662,4615181.269937 562594.238940,4615198.225146 562584.633599,4615213.541479 562578.858873,4615224.816372 562567.063057,4615250.806024 562552.352225,4615272.262347 562528.813665,4615305.799744 562514.544915,4615326.216294 562504.760118,4615338.289021 562501.205730,4615343.121249 562500.448692,4615344.991096 562500.578651,4615347.268392"/>
    <poly id="131547604" type="building.yes" color="255,230,230" fill="1" layer="-1.00" shape="562440.889816,4614558.430325 562441.024413,4614545.840446 562457.620541,4614546.018285 562457.485915,4614558.608163 562440.889816,4614558.430325"/>
    <poly id="131547621" type="building.yes" color="255,230,230" fill="1" layer="-1.00" shape="562417.291797,4614557.480970 562423.725604,4614557.536973 562423.784075,4614550.820035 562427.271484,4614550.850394 562427.365140,4614540.092190 562417.443903,4614540.005828 562417.291797,4614557.480970"/>
    <poly id="131547623" type="building.yes" color="255,230,230" fill="1" layer="-1.00" shape="562425.830859,4614506.935728 562445.339273,4614500.554680 562455.070525,4614530.107369 562435.795907,4614536.412702 562433.071037,4614528.150390 562427.912222,4614529.837579 562424.798265,4614520.372736 562429.723359,4614518.761232 562425.830859,4614506.935728"/>
    <poly id="136379674" type="amenity.hospital" color="237,199,199" fill="1" layer="-1.00" shape="562501.266282,4615065.030218 562358.129067,4615062.507012 562355.980264,4615227.271315 562289.036406,4615225.567961 562289.102349,4615206.482088 562242.919818,4615205.292671 562244.462027,4615134.067775 562244.322728,4615132.856314 562242.802247,4615130.633573 562242.316102,4615129.108211 562242.826427,4615097.168669 562119.775084,4615095.446389 562113.082259,4615090.758362 562118.546945,4614867.331261 562249.679336,4614867.702383 562252.561508,4614794.579403 562314.975640,4614795.987595 562317.449578,4614725.858958 562335.249585,4614725.380791 562341.593020,4614732.941714 562355.560156,4614749.196137 562364.534881,4614768.116353 562371.389897,4614790.537864 562373.926327,4614810.889926 562369.042412,4614876.689550 562505.482234,4614875.479345 562501.266282,4615065.030218"/>
    <poly id="136379690" type="amenity.parking" color="184,184,179" fill="1" layer="-1.00" shape="562424.399879,4614899.821857 562422.556525,4614975.796283 562390.892981,4614975.032147 562390.528365,4614990.151567 562413.820308,4614990.720689 562412.093038,4615061.977265 562446.327488,4615062.808306 562495.815284,4615063.994515 562500.156420,4614884.892870 562451.016944,4614883.709689 562450.604697,4614900.460866 562424.399879,4614899.821857"/>
    <poly id="136381432" type="landuse.recreation_ground" color="194,194,130" fill="1" layer="-3.00" shape="564187.894737,4616773.261954 564294.268681,4616775.714516 564295.972936,4616702.625581 564189.598006,4616700.161903 564187.894737,4616773.261954"/>
    <poly id="136381433" type="leisure.pitch" color="207,245,201" fill="1" layer="-2.00" shape="564203.572236,4616419.351165 564190.140719,4616358.062741 564192.446734,4616315.224639 564195.178981,4616308.420579 564199.848507,4616303.665778 564206.904455,4616300.986470 564249.154052,4616301.953568 564310.295063,4616316.736370 564314.749226,4616367.518460 564313.980318,4616377.160335 564311.252023,4616386.296083 564305.486104,4616396.381666 564297.483979,4616405.281344 564282.105178,4616418.300810 564273.756625,4616422.223124 564267.183928,4616423.918503 564256.521214,4616424.211510 564203.572236,4616419.351165"/>
    <poly id="136381433#1" type="sport.baseball" color="79,230,125" fill="1" layer="-2.00" shape="564203.572236,4616419.351165 564190.140719,4616358.062741 564192.446734,4616315.224639 564195.178981,4616308.420579 564199.848507,4616303.665778 564206.904455,4616300.986470 564249.154052,4616301.953568 564310.295063,4616316.736370 564314.749226,4616367.518460 564313.980318,4616377.160335 564311.252023,4616386.296083 564305.486104,4616396.381666 564297.483979,4616405.281344 564282.105178,4616418.300810 564273.756625,4616422.223124 564267.183928,4616423.918503 564256.521214,4616424.211510 564203.572236,4616419.351165"/>
    <poly id="136381434" type="leisure.pitch" color="207,245,201" fill="1" layer="-2.00" shape="564279.386151,4616767.819786 564290.734983,4616767.977111 564291.065029,4616744.174564 564279.716160,4616744.017239 564279.386151,4616767.819786"/>
    <poly id="136381434#1" type="sport.tennis" color="79,230,125" fill="1" layer="-2.00" shape="564279.386151,4616767.819786 564290.734983,4616767.977111 564291.065029,4616744.174564 564279.716160,4616744.017239 564279.386151,4616767.819786"/>
    <poly id="136381435" type="leisure.pitch" color="207,245,201" fill="1" layer="-2.00" shape="564191.878602,4616729.828173 564203.227493,4616729.985359 564203.557346,4616706.171710 564192.208417,4616706.014524 564191.878602,4616729.828173"/>
    <poly id="136381435#1" type="sport.tennis" color="79,230,125" fill="1" layer="-2.00" shape="564191.878602,4616729.828173 564203.227493,4616729.985359 564203.557346,4616706.171710 564192.208417,4616706.014524 564191.878602,4616729.828173"/>
    <poly id="136381436" type="leisure.pitch" color="207,245,201" fill="1" layer="-2.00" shape="564206.219467,4616766.619787 564217.559980,4616766.776922 564217.889783,4616742.974374 564206.549233,4616742.817239 564206.219467,4616766.619787"/>
    <poly id="136381436#1" type="sport.tennis" color="79,230,125" fill="1" layer="-2.00" shape="564206.219467,4616766.619787 564217.559980,4616766.776922 564217.889783,4616742.974374 564206.549233,4616742.817239 564206.219467,4616766.619787"/>
    <poly id="136381437" type="leisure.pitch" color="207,245,201" fill="1" layer="-2.00" shape="564191.210355,4616766.340980 564202.550868,4616766.498091 564202.880621,4616742.695544 564191.540071,4616742.538432 564191.210355,4616766.340980"/>
    <poly id="136381437#1" type="sport.tennis" color="79,230,125" fill="1" layer="-2.00" shape="564191.210355,4616766.340980 564202.550868,4616766.498091 564202.880621,4616742.695544 564191.540071,4616742.538432 564191.210355,4616766.340980"/>
    <poly id="136381438" type="leisure.pitch" color="207,245,201" fill="1" layer="-2.00" shape="564207.237358,4616730.099009 564218.577928,4616730.256145 564218.907732,4616706.453599 564207.567125,4616706.296463 564207.237358,4616730.099009"/>
    <poly id="136381438#1" type="sport.tennis" color="79,230,125" fill="1" layer="-2.00" shape="564207.237358,4616730.099009 564218.577928,4616730.256145 564218.907732,4616706.453599 564207.567125,4616706.296463 564207.237358,4616730.099009"/>
    <poly id="136381439" type="leisure.pitch" color="207,245,201" fill="1" layer="-2.00" shape="564222.172356,4616730.299460 564233.512926,4616730.456620 564233.851101,4616706.654149 564222.502172,4616706.496914 564222.172356,4616730.299460"/>
    <poly id="136381439#1" type="sport.tennis" color="79,230,125" fill="1" layer="-2.00" shape="564222.172356,4616730.299460 564233.512926,4616730.456620 564233.851101,4616706.654149 564222.502172,4616706.496914 564222.172356,4616730.299460"/>
    <poly id="136381440" type="leisure.pitch" color="207,245,201" fill="1" layer="-2.00" shape="564236.163600,4616767.088004 564247.504112,4616767.245186 564247.834014,4616743.442639 564236.493465,4616743.285457 564236.163600,4616767.088004"/>
    <poly id="136381440#1" type="sport.tennis" color="79,230,125" fill="1" layer="-2.00" shape="564236.163600,4616767.088004 564247.504112,4616767.245186 564247.834014,4616743.442639 564236.493465,4616743.285457 564236.163600,4616767.088004"/>
    <poly id="136381441" type="leisure.pitch" color="207,245,201" fill="1" layer="-2.00" shape="564221.087824,4616766.819640 564232.428337,4616766.976799 564232.758289,4616743.163149 564221.417739,4616743.005991 564221.087824,4616766.819640"/>
    <poly id="136381441#1" type="sport.tennis" color="79,230,125" fill="1" layer="-2.00" shape="564221.087824,4616766.819640 564232.428337,4616766.976799 564232.758289,4616743.163149 564221.417739,4616743.005991 564221.087824,4616766.819640"/>
    <poly id="136381442" type="leisure.pitch" color="207,245,201" fill="1" layer="-2.00" shape="564265.349857,4616767.627273 564276.690369,4616767.784501 564277.020368,4616743.981955 564265.679819,4616743.824726 564265.349857,4616767.627273"/>
    <poly id="136381442#1" type="sport.tennis" color="79,230,125" fill="1" layer="-2.00" shape="564265.349857,4616767.627273 564276.690369,4616767.784501 564277.020368,4616743.981955 564265.679819,4616743.824726 564265.349857,4616767.627273"/>
    <poly id="136381443" type="leisure.pitch" color="207,245,201" fill="1" layer="-2.00" shape="564250.482795,4616767.282996 564261.823307,4616767.440201 564262.153257,4616743.637654 564250.812708,4616743.480449 564250.482795,4616767.282996"/>
    <poly id="136381443#1" type="sport.tennis" color="79,230,125" fill="1" layer="-2.00" shape="564250.482795,4616767.282996 564261.823307,4616767.440201 564262.153257,4616743.637654 564250.812708,4616743.480449 564250.482795,4616767.282996"/>
    <poly id="136381444" type="leisure.pitch" color="207,245,201" fill="1" layer="-2.00" shape="564251.149453,4616730.981137 564262.490022,4616731.138342 564262.828393,4616707.324769 564251.479465,4616707.167489 564251.149453,4616730.981137"/>
    <poly id="136381444#1" type="sport.tennis" color="79,230,125" fill="1" layer="-2.00" shape="564251.149453,4616730.981137 564262.490022,4616731.138342 564262.828393,4616707.324769 564251.479465,4616707.167489 564251.149453,4616730.981137"/>
    <poly id="136381445" type="leisure.pitch" color="207,245,201" fill="1" layer="-2.00" shape="564236.557494,4616730.572737 564247.906384,4616730.729994 564248.236385,4616706.916346 564236.887457,4616706.759089 564236.557494,4616730.572737"/>
    <poly id="136381445#1" type="sport.tennis" color="79,230,125" fill="1" layer="-2.00" shape="564236.557494,4616730.572737 564247.906384,4616730.729994 564248.236385,4616706.916346 564236.887457,4616706.759089 564236.557494,4616730.572737"/>
    <poly id="136381446" type="leisure.pitch" color="207,245,201" fill="1" layer="-2.00" shape="564280.197593,4616731.163919 564291.546483,4616731.321245 564291.876530,4616707.518700 564280.535923,4616707.361448 564280.197593,4616731.163919"/>
    <poly id="136381446#1" type="sport.tennis" color="79,230,125" fill="1" layer="-2.00" shape="564280.197593,4616731.163919 564291.546483,4616731.321245 564291.876530,4616707.518700 564280.535923,4616707.361448 564280.197593,4616731.163919"/>
    <poly id="136381447" type="leisure.pitch" color="207,245,201" fill="1" layer="-2.00" shape="564265.810465,4616731.112603 564277.159355,4616731.269906 564277.489454,4616707.456258 564266.148847,4616707.299030 564265.810465,4616731.112603"/>
    <poly id="136381447#1" type="sport.tennis" color="79,230,125" fill="1" layer="-2.00" shape="564265.810465,4616731.112603 564277.159355,4616731.269906 564277.489454,4616707.456258 564266.148847,4616707.299030 564265.810465,4616731.112603"/>
    <poly id="136691542" type="building.yes" color="255,230,230" fill="1" layer="-1.00" shape="561668.322279,4615436.614662 561678.414640,4615436.979065 561678.690417,4615429.109261 561668.606367,4615428.744929 561668.322279,4615436.614662"/>
    <poly id="136691543" type="building.yes" color="255,230,230" fill="1" layer="-1.00" shape="561601.975924,4615440.185748 561610.984657,4615434.933624 561606.440311,4615427.200047 561597.431572,4615432.452177 561601.975924,4615440.185748"/>
    <poly id="136691544" type="building.yes" color="255,230,230" fill="1" layer="-1.00" shape="561664.286387,4615453.956472 561679.237693,4615454.495912 561679.621528,4615443.740202 561664.670104,4615443.211864 561664.286387,4615453.956472"/>
    <poly id="136691545" type="building.yes" color="255,230,230" fill="1" layer="-1.00" shape="561590.079903,4615449.232582 561598.988274,4615444.035097 561593.869766,4615435.319512 561584.961389,4615440.517003 561590.079903,4615449.232582"/>
    <poly id="136691546" type="building.yes" color="255,230,230" fill="1" layer="-1.00" shape="561575.598356,4615456.014378 561583.586602,4615451.353028 561579.263692,4615443.998880 561571.275442,4615448.660234 561575.598356,4615456.014378"/>
    <poly id="136691547" type="building.yes" color="255,230,230" fill="1" layer="-1.00" shape="561566.755367,4615465.231815 561575.437860,4615460.165600 561568.121046,4615447.700474 561559.430222,4615452.766626 561566.755367,4615465.231815"/>
    <poly id="136691548" type="building.yes" color="255,230,230" fill="1" layer="-1.00" shape="561415.094748,4615450.174086 561424.938733,4615439.699277 561418.960881,4615434.118665 561409.116897,4615444.593482 561415.094748,4615450.174086"/>
    <poly id="136691549" type="building.yes" color="255,230,230" fill="1" layer="-1.00" shape="561660.098000,4615468.709924 561668.002590,4615464.103464 561662.892406,4615455.399003 561654.987811,4615460.005468 561660.098000,4615468.709924"/>
    <poly id="136691550" type="building.yes" color="255,230,230" fill="1" layer="-1.00" shape="561347.197112,4615448.326976 561355.516632,4615456.481305 561361.133157,4615450.800124 561352.813637,4615442.645788 561347.197112,4615448.326976"/>
    <poly id="136691551" type="building.yes" color="255,230,230" fill="1" layer="-1.00" shape="561421.888629,4615457.649232 561431.732520,4615447.185534 561425.754679,4615441.604916 561415.910790,4615452.068622 561421.888629,4615457.649232"/>
    <poly id="136691552" type="building.yes" color="255,230,230" fill="1" layer="-1.00" shape="561650.480995,4615474.045582 561658.051065,4615469.624989 561653.588868,4615462.025325 561646.018888,4615466.434820 561650.480995,4615474.045582"/>
    <poly id="136691553" type="building.yes" color="255,230,230" fill="1" layer="-1.00" shape="561431.548578,4615465.737413 561440.107391,4615456.639513 561434.030461,4615450.969212 561425.471649,4615460.067120 561431.548578,4615465.737413"/>
    <poly id="136691554" type="building.yes" color="255,230,230" fill="1" layer="-1.00" shape="561641.929978,4615478.335613 561649.307580,4615474.035491 561645.345673,4615467.295082 561637.968067,4615471.595208 561641.929978,4615478.335613"/>
    <poly id="136691555" type="building.yes" color="255,230,230" fill="1" layer="-1.00" shape="561338.162340,4615457.620770 561345.882421,4615464.826187 561352.248911,4615458.063303 561344.528828,4615450.857879 561338.162340,4615457.620770"/>
    <poly id="136691556" type="building.yes" color="255,230,230" fill="1" layer="-1.00" shape="561549.339989,4615471.544340 561557.955503,4615466.521942 561552.943530,4615457.996055 561544.328010,4615463.018460 561549.339989,4615471.544340"/>
    <poly id="136691557" type="building.yes" color="255,230,230" fill="1" layer="-1.00" shape="561449.009016,4615463.866272 561442.923872,4615458.184790 561434.129850,4615467.536046 561440.214993,4615473.217520 561449.009016,4615463.866272"/>
    <poly id="136691558" type="building.yes" color="255,230,230" fill="1" layer="-1.00" shape="561506.959419,4615453.271130 561514.382003,4615448.571541 561509.635164,4615441.147179 561502.212576,4615445.846773 561506.959419,4615453.271130"/>
    <poly id="136691559" type="building.yes" color="255,230,230" fill="1" layer="-1.00" shape="561450.485360,4615435.332587 561457.751267,4615440.169250 561462.615767,4615432.905045 561455.358178,4615428.068448 561450.485360,4615435.332587"/>
    <poly id="136691560" type="building.yes" color="255,230,230" fill="1" layer="-1.00" shape="561445.782340,4615481.048583 561456.012573,4615470.177412 561450.298984,4615464.843308 561440.068657,4615475.725590 561445.782340,4615481.048583"/>
    <poly id="136691561" type="building.yes" color="255,230,230" fill="1" layer="-1.00" shape="561633.263817,4615483.435198 561641.285454,4615478.763096 561636.019326,4615469.801939 561627.997682,4615474.474047 561633.263817,4615483.435198"/>
    <poly id="136691562" type="building.yes" color="255,230,230" fill="1" layer="-1.00" shape="561533.295622,4615487.817149 561544.144443,4615481.492622 561536.146680,4615467.878053 561525.297846,4615474.202591 561533.295622,4615487.817149"/>
    <poly id="136691563" type="building.yes" color="255,230,230" fill="1" layer="-1.00" shape="561455.873521,4615486.398003 561464.113246,4615477.630492 561458.028125,4615471.948997 561449.788496,4615480.705413 561455.873521,4615486.398003"/>
    <poly id="136691564" type="building.yes" color="255,230,230" fill="1" layer="-1.00" shape="561496.843888,4615459.490970 561504.752605,4615455.361806 561499.798018,4615445.959297 561491.897520,4615450.099641 561496.843888,4615459.490970"/>
    <poly id="136691565" type="building.yes" color="255,230,230" fill="1" layer="-1.00" shape="561623.813198,4615488.783424 561632.336725,4615483.815840 561627.595758,4615475.725254 561619.063808,4615480.703875 561623.813198,4615488.783424"/>
    <poly id="136691566" type="building.yes" color="255,230,230" fill="1" layer="-1.00" shape="561481.090122,4615461.298909 561489.606433,4615462.015937 561490.392947,4615452.795918 561481.876721,4615452.067788 561481.090122,4615461.298909"/>
    <poly id="136691567" type="building.yes" color="255,230,230" fill="1" layer="-1.00" shape="561614.741898,4615495.511721 561622.596209,4615490.938089 561616.591767,4615480.727040 561608.745771,4615485.300750 561614.741898,4615495.511721"/>
    <poly id="136691568" type="building.yes" color="255,230,230" fill="1" layer="-1.00" shape="561506.929259,4615497.528255 561519.961154,4615489.934451 561514.539051,4615480.705570 561501.507146,4615488.299384 561506.929259,4615497.528255"/>
    <poly id="136691569" type="building.yes" color="255,230,230" fill="1" layer="-1.00" shape="561604.434995,4615500.752684 561611.544814,4615496.616771 561605.925965,4615487.053031 561598.816045,4615491.200052 561604.434995,4615500.752684"/>
    <poly id="136691570" type="building.yes" color="255,230,230" fill="1" layer="-1.00" shape="561595.769029,4615507.773171 561603.079710,4615503.505737 561597.263988,4615493.607216 561589.953300,4615497.874656 561595.769029,4615507.773171"/>
    <poly id="136691571" type="building.yes" color="255,230,230" fill="1" layer="-1.00" shape="561494.206869,4615505.913065 561501.935688,4615501.404845 561496.193772,4615491.618074 561488.456625,4615496.126229 561494.206869,4615505.913065"/>
    <poly id="136691572" type="building.yes" color="255,230,230" fill="1" layer="-1.00" shape="561483.518001,4615513.005158 561492.049722,4615508.037480 561485.676046,4615497.190494 561477.144317,4615502.158180 561483.518001,4615513.005158"/>
    <poly id="136691573" type="building.yes" color="255,230,230" fill="1" layer="-1.00" shape="561585.640044,4615511.683303 561593.017578,4615507.383124 561587.365997,4615497.752499 561579.980136,4615502.052612 561585.640044,4615511.683303"/>
    <poly id="136691574" type="building.yes" color="255,230,230" fill="1" layer="-1.00" shape="561575.832630,4615517.883474 561583.469470,4615513.430067 561578.244334,4615504.535924 561570.607489,4615508.989336 561575.832630,4615517.883474"/>
    <poly id="136691575" type="building.yes" color="255,230,230" fill="1" layer="-1.00" shape="561468.764383,4615520.484335 561479.061081,4615514.476971 561473.926028,4615505.739124 561463.629418,4615511.735394 561468.764383,4615520.484335"/>
    <poly id="136691576" type="building.yes" color="255,230,230" fill="1" layer="-1.00" shape="561561.891240,4615525.746946 561570.121978,4615520.943323 561565.405362,4615512.919608 561557.174618,4615517.723236 561561.891240,4615525.746946"/>
    <poly id="136691577" type="building.yes" color="255,230,230" fill="1" layer="-1.00" shape="561455.468621,4615528.775471 561464.527351,4615523.490285 561458.046985,4615512.464758 561448.996568,4615517.750023 561455.468621,4615528.775471"/>
    <poly id="136691578" type="building.yes" color="255,230,230" fill="1" layer="-1.00" shape="561551.973391,4615532.212677 561559.944798,4615527.562261 561554.047056,4615517.518730 561546.067321,4615522.169081 561551.973391,4615532.212677"/>
    <poly id="136691579" type="building.yes" color="255,230,230" fill="1" layer="-1.00" shape="561425.139688,4615503.666561 561430.221148,4615498.269532 561421.766325,4615490.380431 561416.693188,4615495.777537 561425.139688,4615503.666561"/>
    <poly id="136691580" type="building.yes" color="255,230,230" fill="1" layer="-1.00" shape="561443.919059,4615532.396044 561451.689618,4615527.865922 561446.152757,4615518.425149 561438.382193,4615522.955277 561443.919059,4615532.396044"/>
    <poly id="136691581" type="building.yes" color="255,230,230" fill="1" layer="-1.00" shape="561411.373727,4615510.499229 561418.118252,4615503.328822 561410.117522,4615495.865547 561403.372999,4615503.035961 561411.373727,4615510.499229"/>
    <poly id="136691582" type="building.yes" color="255,230,230" fill="1" layer="-1.00" shape="561434.389045,4615537.321914 561442.193071,4615532.769862 561436.615067,4615523.273228 561428.811036,4615527.825285 561434.389045,4615537.321914"/>
    <poly id="136691583" type="building.yes" color="255,230,230" fill="1" layer="-1.00" shape="561531.422882,4615544.072136 561543.743727,4615536.894195 561537.263589,4615525.857492 561524.942732,4615533.035444 561531.422882,4615544.072136"/>
    <poly id="136691584" type="building.yes" color="255,230,230" fill="1" layer="-1.00" shape="561394.756644,4615509.146649 561401.898634,4615515.814225 561408.055275,4615509.260553 561400.913284,4615502.592972 561394.756644,4615509.146649"/>
    <poly id="136691585" type="building.yes" color="255,230,230" fill="1" layer="-1.00" shape="561420.153460,4615531.948116 561426.076151,4615542.013954 561432.968404,4615537.998138 561427.045815,4615527.921192 561420.153460,4615531.948116"/>
    <poly id="136691586" type="building.yes" color="255,230,230" fill="1" layer="-1.00" shape="561520.168708,4615551.092704 561530.005314,4615545.359044 561523.795788,4615534.791011 561513.967495,4615540.524751 561520.168708,4615551.092704"/>
    <poly id="136691587" type="building.yes" color="255,230,230" fill="1" layer="-1.00" shape="561510.312010,4615556.259941 561518.233145,4615551.642357 561512.458386,4615541.810877 561504.537245,4615546.428467 561510.312010,4615556.259941"/>
    <poly id="136691588" type="building.yes" color="255,230,230" fill="1" layer="-1.00" shape="561499.222947,4615562.471423 561508.432227,4615557.098759 561503.157863,4615548.115423 561493.948576,4615553.488094 561499.222947,4615562.471423"/>
    <poly id="136691589" type="building.yes" color="255,230,230" fill="1" layer="-1.00" shape="561488.297580,4615569.006320 561497.331225,4615563.732064 561491.991133,4615554.648244 561482.957577,4615559.911404 561488.297580,4615569.006320"/>
    <poly id="136691590" type="building.yes" color="255,230,230" fill="1" layer="-1.00" shape="561478.672556,4615575.308114 561487.011938,4615570.438710 561480.909035,4615560.049280 561472.561323,4615564.918620 561478.672556,4615575.308114"/>
    <poly id="136691591" type="building.yes" color="255,230,230" fill="1" layer="-1.00" shape="561467.823554,4615581.677147 561476.622915,4615576.545199 561471.914365,4615568.543821 561463.115094,4615573.664673 561467.823554,4615581.677147"/>
    <poly id="136691592" type="building.yes" color="255,230,230" fill="1" layer="-1.00" shape="561638.938460,4615437.139185 561646.727023,4615437.317187 561646.974600,4615426.915608 561656.468927,4615427.141598 561656.649794,4615419.659590 561639.366970,4615419.244494 561638.938460,4615437.139185"/>
    <poly id="136691593" type="building.yes" color="255,230,230" fill="1" layer="-1.00" shape="561629.119020,4615417.613043 561628.725698,4615428.513014 561637.644936,4615428.833965 561638.038272,4615417.933994 561629.119020,4615417.613043"/>
    <poly id="136691594" type="building.yes" color="255,230,230" fill="1" layer="-1.00" shape="561618.408233,4615436.907179 561629.441249,4615430.473330 561624.052145,4615421.289062 561613.019120,4615427.722919 561618.408233,4615436.907179"/>
    <poly id="136691595" type="building.yes" color="255,230,230" fill="1" layer="-1.00" shape="561547.840436,4615426.152654 561559.871780,4615426.544640 561560.153814,4615417.930973 561548.122552,4615417.527884 561547.840436,4615426.152654"/>
    <poly id="136691596" type="building.yes" color="255,230,230" fill="1" layer="-1.00" shape="561503.148479,4615425.036290 561513.332595,4615425.379041 561513.703062,4615414.212394 561503.518834,4615413.880745 561503.148479,4615425.036290"/>
    <poly id="136691597" type="building.yes" color="255,230,230" fill="1" layer="-1.00" shape="561489.097211,4615426.292555 561497.667210,4615426.577026 561498.037271,4615415.454788 561489.467258,4615415.170316 561489.097211,4615426.292555"/>
    <poly id="136691598" type="building.yes" color="255,230,230" fill="1" layer="-1.00" shape="561481.396427,4615425.582523 561481.730737,4615415.714640 561472.012457,4615415.398135 561471.686578,4615425.254987 561481.396427,4615425.582523"/>
    <poly id="136691599" type="building.yes" color="255,230,230" fill="1" layer="-1.00" shape="561438.687914,4615418.332395 561448.863386,4615428.423594 561453.917094,4615423.359439 561443.741622,4615413.268233 561438.687914,4615418.332395"/>
    <poly id="136691600" type="building.yes" color="255,230,230" fill="1" layer="-1.00" shape="561457.078424,4615567.195264 561461.872033,4615573.043339 561469.138497,4615567.121014 561464.353116,4615561.284108 561457.078424,4615567.195264"/>
    <poly id="136691601" type="building.yes" color="255,230,230" fill="1" layer="-1.00" shape="561449.847902,4615559.216694 561454.082850,4615566.159192 561461.587170,4615561.615696 561457.352227,4615554.673194 561449.847902,4615559.216694"/>
    <poly id="136691602" type="building.yes" color="255,230,230" fill="1" layer="-1.00" shape="561385.118813,4615497.505681 561391.344302,4615503.321554 561398.601214,4615495.600357 561392.375629,4615489.795580 561385.118813,4615497.505681"/>
    <poly id="136691603" type="building.yes" color="255,230,230" fill="1" layer="-1.00" shape="561376.819546,4615490.883731 561383.375363,4615497.002211 561391.446834,4615488.433035 561384.891016,4615482.314547 561376.819546,4615490.883731"/>