<?xml version="1.0" encoding="UTF-8"?>
<!-- generated on 2020-08-03 22:57:40.038452 by get_taz.py v1_6_0+1293-6f542e5c3a
  options: 
-->
<tazs xmlns:xsi="http://www.w3.org/2001/XMLSchema-instance" xsi:noNamespaceSchemaLocation="http://sumo.dlr.de/xsd/taz_file.xsd">
    <taz id="lib" edges="594254222#1 153117656 594254223#0 153117748#2 594254223#1 594254221#0 153117748#1 594254221#1 594254222#0 594254223#2"/>
    <taz id="ftz" edges="314294738#14 139943708#0 151183962#0 151184840 721202195#2 151183962#1 721202193#0 314294738#15"/>
    <taz id="uea" edges="649751275#1 793096952 -793096952 -649751275#1 -650762160 649751275#2 -650762158#0 650762158#3 -649751275#2 -649751274#0"/>
    <taz id="sdh" edges="152169580 152169620 153121926#4 -153121926#4 314294738#6 314294738#5 151184838#3 680369139#0 680369138 151184863#0"/>
    <taz id="lyn" edges="594254222#1 153117656 594254223#0 153117748#2 594254223#1 594254221#0 153117748#1 594254221#1 594254222#0 594254223#2"/>
    <taz id="rkn" edges="76158397#17 76158397#21 680369127#0 76158397#20 314294738#0 -17547103#0 76155516#4 314294738#1 680369141#0 17547103#0 -76158397#17 680369127#1 314294738#2 -76158397#20 680369133#1 152169644"/>
    <taz id="cmc" edges="152173964 151183970#1 17534053#1 -17534053#3 680369133#8 17534053#3 680369133#7 151183970#2 -17534053#1 152169638"/>
    <taz id="hhh" edges="680369133#13 167402604#0 151183957#1 151183965 151183962#0 151183962#2 151183957#0 680369133#14"/>
    <taz id="dbt" edges="418408258#1 722722001 593823824#0 43667477#3 -593823824#0 43666951 43667477#2 43667477#1 722722000 43666975"/>
    <taz id="dnc" edges="722722003 593823824#0 43667438#1 593823824#1 153117641#1 -593823824#0 43666951 43667438#0 153117641#0 -593823824#1 43667438#2 43666975"/>
    <taz id="laf" edges="167402604#3 17540347#2 153121913 167402604#2 -17540347#3 17540347#3 152169636 17540347#4 153121916#1 153121916#0 -17540347#2 -17540347#4 152168342#2"/>
    <taz id="mnb" edges="594678475#3 152173955#0 594678475#2 153117741 -17534051#0 153117754#1 17534051#0 594678475#1 152168348#3 594678475#0"/>
    <taz id="ndh" edges="17558874#4 151184856#3 167402593#2 17558874#5 -17558874#5 -17558874#4 17558874#6 -17558874#6 167402589#1 151184856#2"/>
    <taz id="jdn" edges="726181176#1 -448538554#0 152173974#0 167402583 448536286 726181180#3 152173974#1 448538554#0"/>
    <taz id="fgr" edges="101894907#4 -17534798#3 -17534798#0 101894907#3 76158401 -17534798#2 101894906 -76158401 -101894907#4 -101894907#3 448534568#0 17534798#3 172598161#8 17534798#2 -101894906"/>
    <taz id="rhh" edges="152169619#0 152169546#2 152169642#0 17546824#4 448539376#0 -448539376#0 -17546824#3 135569629#3 153117674#1 153117673 152169619#1 152169546#1 448539379 -17546824#4 17546824#3 -153117673"/>
    <taz id="str" edges="-223312092#11 -223312092#12 -223312092#9 151184851 223312092#12 152173991 726181124 137776158#4 223312092#10 223312092#9 137776158#5 726181127 43667493#9 223312092#11 139943713#2 -223312092#10"/>
    <taz id="bks" edges="722413518 726181136#0 137776158#11 726181134#0 726181135 152169654#3 726181134#1 -722413518"/>
    <taz id="mdz" edges="-17536421#8 152169537#0 17536421#7 -146837459#9 17536421#8 152169537#1 146837459#9 -17536421#6 418408259#6 726181126 17536421#6 418408259#7 137776158#3 726181116 -17536421#7 137776158#2"/>
    <taz id="nwl" edges="167402604#3 17540347#2 -17540347#4 167402604#2 167402604#1 -17540347#3 17540347#3 152169636 17558874#13 17540347#4 -17540347#2 167402604#5 17558874#14 152169542#0"/>
    <taz id="jyc" edges="723380243#2 723380243#3 749236486#1 726181164#1 720982704#2 723380243#1 -749249272 726181164#2"/>
</taz>
