<?xml version="1.0" encoding="UTF-8"?>
<!-- generated on 2020-08-03 11:57:43.580880 by get_taz.py v1_6_0+1293-6f542e5c3a
  options: 
-->
<tazs xmlns:xsi="http://www.w3.org/2001/XMLSchema-instance" xsi:noNamespaceSchemaLocation="http://sumo.dlr.de/xsd/taz_file.xsd">
    <taz id="lib" edges="153117748#2 594254223#1 594254221#0 153117748#1 594254221#1 594254222#0 594254223#2 153117656 594254223#0 594254222#1"/>
    <taz id="ftz" edges="139943708#0 151183962#0 151184840 721202195#2 721202193#0 151183962#1 314294738#15 314294738#14"/>
    <taz id="uea" edges="649751275#2 793096952 -650762158#0 -649751275#1 650762158#3 -649751275#2 -649751274#0 649751275#1 -793096952 -650762160"/>
    <taz id="sdh" edges="314294738#6 314294738#5 151184838#3 680369139#0 680369138 153121926#4 151184863#0 152169620 -153121926#4 152169580"/>
</taz>
