<?xml version="1.0" encoding="UTF-8"?>

<routes xmlns:xsi="http://www.w3.org/2001/XMLSchema-instance" xsi:noNamespaceSchemaLocation="http://sumo.dlr.de/xsd/routes_file.xsd">

    <!-- <vType id="car" vClass="passenger"/>
    <vType id="bike" vClass="bicycle"/> -->

    <vehicle id="b0" type="tb0" depart="triggered">
        <route edges="153117748#1 153117748#2 153117748#3 135569629#0 135569629#1 135569629#2 135569629#3 153117674#1 17546824#3 17546824#4 448539376#0 448539376#1 448539376#2 448539376#3 448539376#4 448539376#6 448539376#7 17536421#2 17536421#3 17536421#4 17536421#5 17536421#6 17536421#7 17536421#8 17536421#9 -146837459#7 -146837459#6 -146837459#5 -146837459#4 -76158398#4 -76158398#3 -76158398#2 -76158398#1 -76158398#0 223312092#6 223312092#7 223312092#8 223312092#9 223312092#10"/>
    </vehicle>

</routes>