<?xml version="1.0" encoding="UTF-8"?>
<!-- generated on 2020-09-01 22:58:06.687372 by run.py v1_6_0+1293-6f542e5c3a
  options: 
-->
<routes xmlns:xsi="http://www.w3.org/2001/XMLSchema-instance" xsi:noNamespaceSchemaLocation="http://sumo.dlr.de/xsd/routes_file.xsd">
    <person id="pa001" depart="40172.26" type="tp0">
        <ride from="-726163743" to="-726163741" lines="b_a001_36000"/>
        <stop lane="-726163741" until="46226.18"/>
        <walk from="-726163741" to="43666951"/>
        <stop lane="43666951" until="113960.69"/>
        <walk from="43666951" to="151184840"/>
        <stop lane="151184840" until="121729.46"/>
        <walk from="151184840" to="418408258#1"/>
        <stop lane="418408258#1" until="191022.85"/>
        <walk from="418408258#1" to="314294738#14"/>
        <stop lane="314294738#14" until="198907.20"/>
        <walk from="314294738#14" to="-726163743"/>
        <ride from="-726163743" to="-593823824#0" lines="b_a001_194400"/>
        <stop lane="-593823824#0" until="213141.61"/>
        <walk from="-593823824#0" to="721202195#2"/>
        <stop lane="721202195#2" until="222427.26"/>
        <walk from="721202195#2" to="-726163742#0"/>
        <ride from="-726163742#0" to="726163743" lines="b_a001_216000"/>
        <stop lane="726163743" until="285998.41"/>
        <ride from="726163743" to="726163742#0" lines="b_a001_280800"/>
        <stop lane="726163742#0" until="294446.62"/>
        <walk from="726163742#0" to="43666951"/>
        <stop lane="43666951" until="383102.31"/>
        <walk from="43666951" to="151183962#1"/>
        <stop lane="151183962#1" until="392089.16"/>
        <walk from="151183962#1" to="418408258#1"/>
    </person>
    <person id="pe001" depart="15070.31" type="tp0">
        <walk from="152169580" to="43666975"/>
        <stop until="33745.79"/>
        <walk from="43666975" to="151184863#0"/>
        <stop until="36312.86"/>
        <walk from="151184863#0" to="43666975"/>
        <stop until="47368.52"/>
        <walk from="43666975" to="721202193#0"/>
        <stop until="50570.29"/>
        <walk from="721202193#0" to="722722001"/>
        <stop until="58303.80"/>
        <walk from="722722001" to="314294738#6"/>
        <stop until="113603.93"/>
        <walk from="314294738#6" to="43667477#1"/>
        <stop until="125100.11"/>
        <walk from="43667477#1" to="314294738#5"/>
        <stop until="133030.79"/>
        <walk from="314294738#5" to="151184840"/>
        <stop until="147122.59"/>
        <walk from="151184840" to="151184863#0"/>
        <stop until="200503.71"/>
        <walk from="151184863#0" to="43666951"/>
        <stop until="202613.20"/>
        <walk from="43666951" to="151184838#3"/>
        <stop until="213897.06"/>
        <walk from="151184838#3" to="43667477#3"/>
        <stop until="236992.05"/>
        <walk from="43667477#3" to="151183962#1"/>
        <stop until="257850.09"/>
        <walk from="151183962#1" to="152169620"/>
        <stop until="285847.22"/>
        <walk from="152169620" to="722722001"/>
        <stop until="300162.86"/>
        <walk from="722722001" to="152169580"/>
        <stop until="311409.23"/>
        <walk from="152169580" to="43667477#3"/>
        <stop until="324648.24"/>
        <walk from="43667477#3" to="151184838#3"/>
        <stop until="373052.79"/>
        <walk from="151184838#3" to="722722000"/>
        <stop until="380110.31"/>
        <walk from="722722000" to="151184863#0"/>
        <stop until="390421.08"/>
        <walk from="151184863#0" to="43667477#2"/>
        <stop until="404719.60"/>
        <walk from="43667477#2" to="139943708#0"/>
        <stop until="418648.16"/>
        <walk from="139943708#0" to="680369138"/>
    </person>
    <person id="pe002" depart="17323.73" type="tp0">
        <ride from="723380243#1" to="-726163743" lines="b_e002_14400"/>
        <stop until="26858.35"/>
        <walk from="-726163743" to="723380243#1"/>
        <stop until="34415.35"/>
        <walk from="723380243#1" to="43667477#2"/>
        <stop until="45290.77"/>
        <walk from="43667477#2" to="723380243#2"/>
        <stop until="107725.24"/>
        <walk from="723380243#2" to="418408258#1"/>
        <stop until="140124.97"/>
        <walk from="418408258#1" to="-726163743"/>
        <ride from="-726163743" to="749236486#1" lines="b_e002_136800"/>
        <stop until="198799.80"/>
        <walk from="749236486#1" to="43667477#1"/>
        <stop until="217793.66"/>
        <walk from="43667477#1" to="720982704#2"/>
        <stop until="279129.09"/>
        <walk from="720982704#2" to="723380243#1"/>
        <ride from="723380243#1" to="593823824#0" lines="b_e002_273600"/>
        <stop until="286915.56"/>
        <walk from="593823824#0" to="726181164#2"/>
        <stop until="292313.14"/>
        <walk from="726181164#2" to="43666975"/>
        <stop until="312356.12"/>
        <walk from="43666975" to="726163743"/>
        <ride from="726163743" to="723380243#3" lines="b_e002_309600"/>
        <stop until="361329.90"/>
        <ride from="723380243#3" to="593823824#0" lines="b_e002_360000"/>
        <stop until="392151.84"/>
        <walk from="593823824#0" to="-749249272"/>
        <stop until="407899.48"/>
        <walk from="-749249272" to="43666951"/>
        <stop until="417268.04"/>
        <walk from="43666951" to="593823824#0"/>
        <ride from="593823824#0" to="-749249272" lines="b_e002_410400"/>
    </person>
    <person id="pe003" depart="14622.97" type="tp0">
        <walk from="151184868#5" to="43667477#1"/>
        <stop until="24239.38"/>
        <walk from="43667477#1" to="151184868#5"/>
        <stop until="33071.23"/>
        <walk from="151184868#5" to="314294738#15"/>
        <stop until="38257.51"/>
        <walk from="314294738#15" to="152173988#0"/>
        <stop until="45921.93"/>
        <walk from="152173988#0" to="137776158#5"/>
        <stop until="68799.92"/>
        <walk from="137776158#5" to="76155516#3"/>
        <stop until="115824.02"/>
        <walk from="76155516#3" to="722722001"/>
        <stop until="131786.56"/>
        <walk from="722722001" to="152168324#2"/>
        <stop until="142925.30"/>
        <walk from="152168324#2" to="418408258#1"/>
        <stop until="148846.27"/>
        <walk from="418408258#1" to="-773919292#1"/>
        <stop until="206143.58"/>
        <walk from="-773919292#1" to="722722000"/>
        <stop until="218543.26"/>
        <walk from="722722000" to="773919292#1"/>
        <stop until="229711.47"/>
        <walk from="773919292#1" to="152168312#6"/>
        <stop until="234388.68"/>
        <walk from="152168312#6" to="43667477#2"/>
        <stop until="244197.19"/>
        <walk from="43667477#2" to="-76155516#3"/>
        <stop until="290818.28"/>
        <walk from="-76155516#3" to="43666951"/>
        <stop until="303188.36"/>
        <walk from="43666951" to="721202193#0"/>
        <stop until="312692.71"/>
        <walk from="721202193#0" to="76155516#3"/>
        <stop until="318633.03"/>
        <walk from="76155516#3" to="43667477#1"/>
        <stop until="328581.12"/>
        <walk from="43667477#1" to="-773919292#1"/>
        <stop until="383209.50"/>
        <walk from="-773919292#1" to="152168312#4"/>
        <stop until="393069.37"/>
        <walk from="152168312#4" to="151184868#5"/>
        <stop until="396146.61"/>
        <walk from="151184868#5" to="152168312#6"/>
        <stop until="405072.09"/>
        <walk from="152168312#6" to="43667477#2"/>
        <stop until="412467.11"/>
        <walk from="43667477#2" to="-773919292#1"/>
    </person>
    <person id="pe004" depart="28949.31" type="tp0">
        <walk from="17536421#5" to="152169542#0"/>
        <stop until="40385.66"/>
        <walk from="152169542#0" to="17540347#3"/>
        <ride from="17540347#3" to="773150881" lines="b_e004_36000"/>
        <stop until="47460.75"/>
        <ride from="773150881" to="-593823824#0" lines="b_e004_43200"/>
        <stop until="53620.10"/>
        <ride from="-593823824#0" to="-153121926#4" lines="b_e004_50400"/>
        <stop until="60528.31"/>
        <ride from="-153121926#4" to="721220794" lines="b_e004_57600"/>
        <stop until="105109.48"/>
        <walk from="721220794" to="152169636"/>
        <stop until="111627.39"/>
        <walk from="152169636" to="17536421#5"/>
        <stop until="119449.84"/>
        <walk from="17536421#5" to="43666975"/>
        <stop until="133089.07"/>
        <walk from="43666975" to="593823824#0"/>
        <ride from="593823824#0" to="153121926#4" lines="b_e004_129600"/>
        <stop until="139833.31"/>
        <walk from="153121926#4" to="17540347#2"/>
        <stop until="147225.89"/>
        <walk from="17540347#2" to="43667477#2"/>
        <stop until="153886.50"/>
        <walk from="43667477#2" to="726163743"/>
        <ride from="726163743" to="17536421#5" lines="b_e004_151200"/>
        <stop until="197755.36"/>
        <walk from="17536421#5" to="17540347#2"/>
        <stop until="211120.25"/>
        <ride from="17540347#2" to="-773150881" lines="b_e004_208800"/>
        <stop until="223067.69"/>
        <walk from="-773150881" to="167402604#2"/>
        <stop until="228292.41"/>
        <walk from="167402604#2" to="17540347#3"/>
        <ride from="17540347#3" to="721220780#14" lines="b_e004_223200"/>
        <stop until="292818.28"/>
        <ride from="721220780#14" to="-726163743" lines="b_e004_288000"/>
        <stop until="302896.50"/>
        <walk from="-726163743" to="152169580"/>
        <stop until="318197.47"/>
        <walk from="152169580" to="-153121926#4"/>
        <ride from="-153121926#4" to="17540347#2" lines="b_e004_316800"/>
        <stop until="328406.45"/>
        <ride from="17540347#2" to="-17536421#5" lines="b_e004_324000"/>
        <stop until="365971.87"/>
        <walk from="-17536421#5" to="167402604#1"/>
        <stop until="385643.55"/>
        <walk from="167402604#1" to="-774942380#1"/>
        <ride from="-774942380#1" to="773150881" lines="b_e004_381600"/>
        <stop until="395098.96"/>
        <ride from="773150881" to="17536421#6" lines="b_e004_388800"/>
        <stop until="403199.41"/>
        <walk from="17536421#6" to="722722001"/>
        <stop until="414910.49"/>
        <walk from="722722001" to="-593823824#0"/>
        <ride from="-593823824#0" to="17558874#13" lines="b_e004_410400"/>
        <stop until="419815.31"/>
        <ride from="17558874#13" to="721220780#15" lines="b_e004_417600"/>
    </person>
    <person id="pe006" depart="35985.11" type="tp0">
        <walk from="43667477#3" to="314294738#14"/>
        <stop until="37660.70"/>
        <walk from="314294738#14" to="726181110#0"/>
        <stop until="47717.03"/>
        <walk from="726181110#0" to="151184840"/>
        <stop until="56775.21"/>
        <walk from="151184840" to="43667477#3"/>
        <stop until="130814.84"/>
        <walk from="43667477#3" to="151183962#0"/>
        <stop until="151965.79"/>
        <walk from="151183962#0" to="43667477#1"/>
        <stop until="221539.80"/>
        <walk from="43667477#1" to="151183962#0"/>
        <stop until="225623.62"/>
        <walk from="151183962#0" to="153117667#6"/>
        <stop until="233281.13"/>
        <walk from="153117667#6" to="448539376#0"/>
        <ride from="448539376#0" to="593823824#0" lines="c_e006_230400"/>
        <stop until="306005.31"/>
        <walk from="593823824#0" to="151184840"/>
        <stop until="314325.03"/>
        <walk from="151184840" to="448539376#2"/>
        <stop until="326710.96"/>
        <walk from="448539376#2" to="418408258#1"/>
        <stop until="405934.30"/>
        <walk from="418408258#1" to="448539376#2"/>
        <stop until="414235.78"/>
        <ride from="448539376#2" to="593823824#0" lines="c_e006_410400"/>
        <stop until="417879.02"/>
        <ride from="593823824#0" to="-448539376#0" lines="c_e006_417600"/>
    </person>
    <person id="pe007" depart="32179.53" type="tp0">
        <walk from="418408258#1" to="151184840"/>
        <stop until="39790.60"/>
        <walk from="151184840" to="-726163741"/>
        <ride from="-726163741" to="726163743" lines="c_e007_36000"/>
        <stop until="50059.82"/>
        <walk from="726163743" to="721202195#2"/>
        <stop until="56566.71"/>
        <walk from="721202195#2" to="722722001"/>
        <stop until="232073.14"/>
        <walk from="722722001" to="151184840"/>
        <stop until="238083.15"/>
        <walk from="151184840" to="43666951"/>
        <stop until="398762.98"/>
        <walk from="43666951" to="593823824#0"/>
        <ride from="593823824#0" to="-726163743" lines="c_e007_396000"/>
        <stop until="417578.73"/>
        <walk from="-726163743" to="43666951"/>
    </person>
    <person id="pj001" depart="27560.87" type="tp0">
        <ride from="723686079" to="726163743" lines="c_j001_21600"/>
        <stop until="37326.16"/>
        <walk from="726163743" to="314294738#14"/>
        <stop until="48027.49"/>
        <walk from="314294738#14" to="167402604#0"/>
        <stop until="56528.11"/>
        <walk from="167402604#0" to="137776158#4"/>
        <stop until="59089.91"/>
        <walk from="137776158#4" to="43666951"/>
        <stop until="190972.40"/>
        <walk from="43666951" to="723686078#0"/>
        <stop until="199912.78"/>
        <ride from="723686078#0" to="726163743" lines="c_j001_194400"/>
        <stop until="202007.93"/>
        <walk from="726163743" to="721202195#2"/>
        <stop until="209817.56"/>
        <walk from="721202195#2" to="726163742#0"/>
        <ride from="726163742#0" to="-774642705#2" lines="c_j001_208800"/>
        <stop until="219791.90"/>
        <walk from="-774642705#2" to="151183957#1"/>
        <stop until="228430.35"/>
        <walk from="151183957#1" to="418408258#1"/>
        <stop until="275386.89"/>
        <walk from="418408258#1" to="-593823824#0"/>
        <ride from="-593823824#0" to="723686078#1" lines="c_j001_273600"/>
        <stop until="286470.01"/>
        <walk from="723686078#1" to="722722000"/>
        <stop until="308907.96"/>
        <walk from="722722000" to="43667438#0"/>
        <stop until="323376.06"/>
        <walk from="43667438#0" to="418408258#1"/>
        <stop until="383912.95"/>
        <walk from="418408258#1" to="167402604#0"/>
        <stop until="405886.98"/>
        <walk from="167402604#0" to="43667477#1"/>
    </person>
    <person id="pj004" depart="29906.03" type="tp0">
        <ride from="-726163743" to="-17558874#17" lines="c_j004_28800"/>
        <stop until="47702.38"/>
        <ride from="-17558874#17" to="-593823824#0" lines="c_j004_43200"/>
        <stop until="112810.30"/>
        <ride from="-593823824#0" to="774942380#1" lines="b_j004_108000"/>
        <stop until="116595.13"/>
        <ride from="774942380#1" to="726163743" lines="b_j004_115200"/>
        <stop until="133839.25"/>
        <walk from="726163743" to="354395661#0"/>
        <stop until="147856.46"/>
        <walk from="354395661#0" to="-593823824#4"/>
        <ride from="-593823824#4" to="726163743" lines="c_j004_144000"/>
        <stop until="207513.94"/>
        <walk from="726163743" to="152173980#4"/>
        <stop until="216609.86"/>
        <walk from="152173980#4" to="722722001"/>
        <stop until="232544.42"/>
        <walk from="722722001" to="593823824#4"/>
        <stop until="239005.46"/>
        <walk from="593823824#4" to="418408258#1"/>
        <stop until="278047.11"/>
        <walk from="418408258#1" to="593823824#0"/>
        <ride from="593823824#0" to="-17558874#17" lines="c_j004_273600"/>
        <stop until="285276.56"/>
        <ride from="-17558874#17" to="726163743" lines="b_j004_280800"/>
        <stop until="308980.09"/>
        <walk from="726163743" to="720982704#1"/>
        <stop until="318737.54"/>
        <walk from="720982704#1" to="418408258#1"/>
    </person>
    <person id="pj005" depart="48606.25" type="tp0">
        <ride from="-726163743" to="726163743" lines="c_j005_43200"/>
        <stop until="54802.71"/>
        <walk from="726163743" to="43667477#3"/>
        <stop until="113881.35"/>
        <walk from="43667477#3" to="721202193#0"/>
        <stop until="117351.79"/>
        <walk from="721202193#0" to="43666951"/>
        <stop until="202466.89"/>
        <walk from="43666951" to="314294738#15"/>
        <stop until="211292.29"/>
        <walk from="314294738#15" to="418408258#1"/>
    </person>
    <person id="ps002" depart="31560.88" type="tp0">
        <ride from="593823824#0" to="774942380#1" lines="b_s002_28800"/>
        <stop until="36460.08"/>
        <ride from="774942380#1" to="-726163743" lines="b_s002_36000"/>
        <stop until="48517.70"/>
        <ride from="-726163743" to="-726163743" lines="b_s002_43200"/>
        <stop until="55310.69"/>
        <ride from="-726163743" to="726163743" lines="b_s002_50400"/>
        <stop until="61509.64"/>
        <walk from="726163743" to="314294738#14"/>
        <stop until="65899.81"/>
        <walk from="314294738#14" to="-726163741"/>
        <ride from="-726163741" to="593823824#0" lines="b_s002_64800"/>
        <stop until="107557.72"/>
        <ride from="593823824#0" to="17558874#13" lines="b_s002_100800"/>
        <stop until="111532.33"/>
        <ride from="17558874#13" to="-726163743" lines="b_s002_108000"/>
        <stop until="136485.60"/>
        <ride from="-726163743" to="-726163743" lines="b_s002_129600"/>
        <stop until="141243.72"/>
        <walk from="-726163743" to="680369133#14"/>
        <stop until="148603.23"/>
        <walk from="680369133#14" to="314294738#15"/>
        <stop until="155543.43"/>
        <walk from="314294738#15" to="-726163741"/>
        <ride from="-726163741" to="593823824#0" lines="b_s002_151200"/>
        <stop until="201744.97"/>
        <ride from="593823824#0" to="-17540347#3" lines="b_s002_201600"/>
        <stop until="211986.34"/>
        <walk from="-17540347#3" to="721202193#0"/>
        <stop until="217980.69"/>
        <walk from="721202193#0" to="43667477#2"/>
        <stop until="226116.18"/>
        <walk from="43667477#2" to="-593823824#0"/>
        <ride from="-593823824#0" to="-726163743" lines="b_s002_223200"/>
        <stop until="236612.16"/>
        <walk from="-726163743" to="43667477#1"/>
        <stop until="306656.33"/>
        <walk from="43667477#1" to="139943708#0"/>
        <stop until="312452.76"/>
        <walk from="139943708#0" to="43667477#2"/>
        <stop until="365680.34"/>
        <walk from="43667477#2" to="-593823824#0"/>
        <ride from="-593823824#0" to="17558874#13" lines="b_s002_360000"/>
        <stop until="368841.71"/>
        <ride from="17558874#13" to="593823824#0" lines="b_s002_367200"/>
        <stop until="381138.56"/>
        <walk from="593823824#0" to="167402604#2"/>
        <stop until="382081.38"/>
        <walk from="167402604#2" to="151183962#1"/>
        <stop until="390351.84"/>
        <walk from="151183962#1" to="726163742#0"/>
        <ride from="726163742#0" to="774942380#1" lines="b_s002_388800"/>
        <stop until="402572.05"/>
        <walk from="774942380#1" to="43666975"/>
        <stop until="414487.51"/>
        <walk from="43666975" to="-726163743"/>
        <ride from="-726163743" to="-774942380#1" lines="b_s002_410400"/>
        <stop until="423810.77"/>
        <ride from="-774942380#1" to="-726163743" lines="b_s002_417600"/>
    </person>
    <person id="ps003" depart="46475.36" type="tp0">
        <ride from="726163743" to="726163741" lines="b_s003_43200"/>
        <stop until="52195.37"/>
        <walk from="726163741" to="-17534796"/>
        <stop until="86105.54"/>
        <ride from="-17534796" to="-726163743" lines="b_s003_79200"/>
        <stop until="143111.09"/>
        <ride from="-726163743" to="17534796" lines="b_s003_136800"/>
        <stop until="167320.34"/>
        <ride from="17534796" to="593823824#0" lines="b_s003_165600"/>
        <stop until="216914.13"/>
        <ride from="593823824#0" to="-17540347#2" lines="b_s003_216000"/>
        <stop until="225444.04"/>
        <ride from="-17540347#2" to="17534796" lines="b_s003_223200"/>
        <stop until="251568.22"/>
        <ride from="17534796" to="593823824#0" lines="b_s003_244800"/>
        <stop until="289629.82"/>
        <ride from="593823824#0" to="-594685505#2" lines="b_s003_288000"/>
        <stop until="301883.45"/>
        <walk from="-594685505#2" to="152173974#1"/>
        <stop until="310716.93"/>
        <walk from="152173974#1" to="17534796"/>
        <stop until="331563.73"/>
        <walk from="17534796" to="43667477#1"/>
        <stop until="391654.59"/>
        <walk from="43667477#1" to="167402604#3"/>
        <stop until="402670.55"/>
        <walk from="167402604#3" to="17540347#2"/>
        <ride from="17540347#2" to="-17533184#1" lines="b_s003_396000"/>
    </person>
</routes>
